11
Created by chemcoord http://chemcoord.readthedocs.io/
Pt  0.000000  0.000000  0.000000
Cl  0.000000  0.000000  2.320000
Cl  2.320000  0.000000  0.000000
 N -2.050000  0.000000  0.000000
 H -2.375416 -0.945077  0.000000
 H -2.398480  0.447395  0.822987
 H -2.443203  0.462757 -0.793861
 N  0.000000  0.000000 -2.050000
 H  0.000000  0.945077 -2.375416
 H  0.822987 -0.447395 -2.398480
 H -0.793861 -0.462757 -2.443203